* C:\maec_test\NetlistWDFSimulator\data\netlist\BridgeTSP.asc
C1 3 4 3µ
C2 1 2 0.1µ
R1 2 0 1k
R2 4 0 2k
R3 1 4 5k
Vin 1 0 wavefile = ExpSweep.wav
R4 4 0 2.5k
R5 3 2 1k
.tran 2s
.wave "BridgeT_Vr2P.wav" 16 192k V(n002)
.backanno
.end
