* /Users/pelufrapa/Documents/LTspice/Corrente.asc
I1 0 N001 5m
R2 N002 N001 1k
R3 N003 0 2k
C1 N003 0 20u
L1 N003 N002 10m
.tran 2
.backanno
.end
