* C:\Users\Ricky\Documents\OneDrive Laptop\OneDrive\Documenti\Magistrale\MAEC\Crossover Netlist\Crossover Netlist\Crossover.asc
Rspk3 z 1 8
R2 1 N007 10
Rspk2 N004 z 8
R1 N004 N005 10
Rspk1 N002 z 8
C5 1 z 28u
C6 z N007 47u
C4 N005 z 4.7u
C44 N003 z 2.8u
C3 N003 N004 28u
C99 N001 N002 2.8u
La z N004 3.5m
L1 N002 z 0.35m
L2 N001 N003 0.35m
L4 1 N001 3.5m
Vin N001 z wavefile=ExpSweep.wav
.tran 2
.wave "outputLow.wav" 16 192k V(1)
.wave "outputMid.wav" 16 192k V(n004)
.wave "outputHigh.wav" 16 192k V(n002)
.backanno
.end